15
TS candidate 1 - Checkpoint before FF optimization
C      0.063111 -3.222490  0.257372
H      0.258593 -4.145646 -0.247019
H      0.414122 -3.285964  1.266217
H      0.569585 -2.426300 -0.247075
Cl     -1.668745 -2.909284  0.257372
C      2.393891  0.303916 -2.656877
O      2.513093 -0.600550 -1.835834
H      2.692654  0.182341 -3.719469
O      1.860933  1.584509 -2.308721
H      1.632890  1.593932 -1.376293
C     -1.313207  3.212965  0.438716
O     -0.404574  3.399770  1.242375
H     -1.417558  3.815977 -0.487907
O     -2.307997  2.204160  0.633346
H     -2.135776  1.738621  1.455008
15
TS candidate 2 - Checkpoint before FF optimization
C     -0.655125 -4.254963  0.055672
H     -1.077097 -5.150085 -0.351192
H      0.166585 -4.505890  0.693506
H     -0.310255 -3.629231 -0.740835
Cl     -1.879816 -3.399198  0.985844
C      1.308575  1.411988 -1.997145
O      1.572560  0.711273 -1.024679
H      0.543718  1.119957 -2.747381
O      1.965540  2.658933 -2.239425
H      2.604858  2.824933 -1.542840
C     -1.063098  2.448125 -0.254060
O     -0.023288  2.821253  0.280682
H     -1.366825  2.794539 -1.264451
O     -1.964135  1.538237  0.382659
H     -1.619189  1.296702  1.245322
15
TS candidate 3 - Checkpoint before FF optimization
C     -0.655125 -4.254963  0.055672
H     -1.077097 -5.150085 -0.351192
H      0.166585 -4.505890  0.693506
H     -0.310255 -3.629231 -0.740835
Cl     -1.879816 -3.399198  0.985844
C      2.445942  1.258315 -0.358100
O      1.572560  0.711273 -1.024679
H      2.848507  0.808542  0.573989
O      3.012906  2.517398 -0.730169
H      2.604858  2.824933 -1.542840
C     -1.063098  2.448125 -0.254060
O     -0.023288  2.821253  0.280682
H     -1.366825  2.794539 -1.264451
O     -1.964135  1.538237  0.382659
H     -1.619189  1.296702  1.245322
15
TS candidate 4 - Checkpoint before FF optimization
C     -0.655125 -4.254963  0.055672
H      0.166509 -4.505863  0.693486
H     -0.310208 -3.629176 -0.740838
H     -1.077055 -5.150146 -0.351173
Cl     -1.879816 -3.399198  0.985844
C      2.651956  1.100980 -0.589465
O      1.572560  0.711273 -1.024679
H      3.265974  0.489717  0.105145
O      3.202603  2.372521 -0.943225
H      2.604858  2.824933 -1.542840
C     -1.063098  2.448125 -0.254060
O     -0.023288  2.821253  0.280682
H     -1.366825  2.794539 -1.264451
O     -1.964135  1.538237  0.382659
H     -1.619189  1.296702  1.245322
15
TS candidate 5 - Checkpoint before FF optimization
C     -0.655125 -4.254963  0.055672
H     -0.310249 -3.629196 -0.740768
H     -1.077098 -5.150159 -0.351230
H      0.166575 -4.505838  0.693457
Cl     -1.879816 -3.399198  0.985844
C      1.583180  1.245385 -2.129663
O      1.572560  0.711273 -1.024679
H      1.100181  0.782351 -3.015922
O      2.218401  2.505519 -2.361462
H      2.604858  2.824933 -1.542840
C     -1.063098  2.448125 -0.254060
O     -0.023288  2.821253  0.280682
H     -1.366825  2.794539 -1.264451
O     -1.964135  1.538237  0.382659
H     -1.619189  1.296702  1.245322
15
TS candidate 6 - Checkpoint before FF optimization
C     -0.655125 -4.254963  0.055672
H     -0.310249 -3.629196 -0.740768
H     -1.077098 -5.150159 -0.351230
H      0.166575 -4.505838  0.693457
Cl     -1.879816 -3.399198  0.985844
C      2.470453  0.882123 -1.843812
O      1.572560  0.711273 -1.024679
H      2.898162  0.046230 -2.436678
O      3.035436  2.171007 -2.098267
H      2.604858  2.824933 -1.542840
C     -1.063098  2.448125 -0.254060
O     -0.023288  2.821253  0.280682
H     -1.366825  2.794539 -1.264451
O     -1.964135  1.538237  0.382659
H     -1.619189  1.296702  1.245322
15
TS candidate 7 - Checkpoint before FF optimization
C     -0.655125 -4.254963  0.055672
H     -0.310249 -3.629196 -0.740768
H     -1.077098 -5.150159 -0.351230
H      0.166575 -4.505838  0.693457
Cl     -1.879816 -3.399198  0.985844
C      2.764531  0.971889 -0.891770
O      1.572560  0.711273 -1.024679
H      3.494093  0.228128 -0.507452
O      3.306257  2.253653 -1.221602
H      2.604858  2.824933 -1.542840
C     -1.063098  2.448125 -0.254060
O     -0.023288  2.821253  0.280682
H     -1.366825  2.794539 -1.264451
O     -1.964135  1.538237  0.382659
H     -1.619189  1.296702  1.245322
15
TS candidate 8 - Checkpoint before FF optimization
C     -0.655125 -4.254963  0.055672
H      0.263206 -3.706678  0.085542
H     -0.980399 -4.350926 -0.959214
H     -0.503568 -5.227579  0.475134
Cl     -1.879816 -3.399198  0.985844
C      2.764531  0.971889 -0.891770
O      1.572560  0.711273 -1.024679
H      3.494093  0.228128 -0.507452
O      3.306257  2.253653 -1.221602
H      2.604858  2.824933 -1.542840
C     -1.063098  2.448125 -0.254060
O     -0.023288  2.821253  0.280682
H     -1.366825  2.794539 -1.264451
O     -1.964135  1.538237  0.382659
H     -1.619189  1.296702  1.245322
15
TS candidate 9 - Checkpoint before FF optimization
C     -0.655125 -4.254963  0.055672
H      0.166509 -4.505863  0.693486
H     -0.310208 -3.629176 -0.740838
H     -1.077055 -5.150146 -0.351173
Cl     -1.879816 -3.399198  0.985844
C      2.764531  0.971889 -0.891770
O      1.572560  0.711273 -1.024679
H      3.494093  0.228128 -0.507452
O      3.306257  2.253653 -1.221602
H      2.604858  2.824933 -1.542840
C     -1.063098  2.448125 -0.254060
O     -0.023288  2.821253  0.280682
H     -1.366825  2.794539 -1.264451
O     -1.964135  1.538237  0.382659
H     -1.619189  1.296702  1.245322
15
TS candidate 10 - Checkpoint before FF optimization
C     -0.655125 -4.254963  0.055672
H     -0.503642 -5.227567  0.475119
H      0.263284 -3.706658  0.085522
H     -0.980398 -4.350972 -0.959158
Cl     -1.879816 -3.399198  0.985844
C      2.764531  0.971889 -0.891770
O      1.572560  0.711273 -1.024679
H      3.494093  0.228128 -0.507452
O      3.306257  2.253653 -1.221602
H      2.604858  2.824933 -1.542840
C     -1.063098  2.448125 -0.254060
O     -0.023288  2.821253  0.280682
H     -1.366825  2.794539 -1.264451
O     -1.964135  1.538237  0.382659
H     -1.619189  1.296702  1.245322
15
TS candidate 11 - Checkpoint before FF optimization
C     -0.655125 -4.254963  0.055672
H      0.128647 -3.577090 -0.210842
H     -1.097248 -4.655941 -0.832445
H     -0.252165 -5.052154  0.644747
Cl     -1.879816 -3.399198  0.985844
C      2.651956  1.100980 -0.589465
O      1.572560  0.711273 -1.024679
H      3.265974  0.489717  0.105145
O      3.202603  2.372521 -0.943225
H      2.604858  2.824933 -1.542840
C     -1.063098  2.448125 -0.254060
O     -0.023288  2.821253  0.280682
H     -1.366825  2.794539 -1.264451
O     -1.964135  1.538237  0.382659
H     -1.619189  1.296702  1.245322
15
TS candidate 12 - Checkpoint before FF optimization
C     -0.655125 -4.254963  0.055672
H      0.283352 -4.200868  0.566725
H     -0.561624 -3.804596 -0.910472
H     -0.942483 -5.279719 -0.054784
Cl     -1.879816 -3.399198  0.985844
C      2.651956  1.100980 -0.589465
O      1.572560  0.711273 -1.024679
H      3.265974  0.489717  0.105145
O      3.202603  2.372521 -0.943225
H      2.604858  2.824933 -1.542840
C     -1.063098  2.448125 -0.254060
O     -0.023288  2.821253  0.280682
H     -1.366825  2.794539 -1.264451
O     -1.964135  1.538237  0.382659
H     -1.619189  1.296702  1.245322
15
TS candidate 13 - Checkpoint before FF optimization
C     -0.655125 -4.254963  0.055672
H     -0.252241 -5.052159  0.644743
H      0.128716 -3.577064 -0.210881
H     -1.097229 -4.655970 -0.832381
Cl     -1.879816 -3.399198  0.985844
C      2.651956  1.100980 -0.589465
O      1.572560  0.711273 -1.024679
H      3.265974  0.489717  0.105145
O      3.202603  2.372521 -0.943225
H      2.604858  2.824933 -1.542840
C     -1.063098  2.448125 -0.254060
O     -0.023288  2.821253  0.280682
H     -1.366825  2.794539 -1.264451
O     -1.964135  1.538237  0.382659
H     -1.619189  1.296702  1.245322
15
TS candidate 14 - Checkpoint before FF optimization
C     -0.655125 -4.254963  0.055672
H     -0.070511 -3.550181 -0.497817
H     -1.130831 -4.933511 -0.621294
H     -0.019427 -4.801496  0.720569
Cl     -1.879816 -3.399198  0.985844
C      2.445942  1.258315 -0.358100
O      1.572560  0.711273 -1.024679
H      2.848507  0.808542  0.573989
O      3.012906  2.517398 -0.730169
H      2.604858  2.824933 -1.542840
C     -1.063098  2.448125 -0.254060
O     -0.023288  2.821253  0.280682
H     -1.366825  2.794539 -1.264451
O     -1.964135  1.538237  0.382659
H     -1.619189  1.296702  1.245322
15
TS candidate 15 - Checkpoint before FF optimization
C     -0.655125 -4.254963  0.055672
H      0.316934 -3.923313  0.355589
H     -0.794379 -4.055257 -0.986313
H     -0.743313 -5.306611  0.232190
Cl     -1.879816 -3.399198  0.985844
C      2.445942  1.258315 -0.358100
O      1.572560  0.711273 -1.024679
H      2.848507  0.808542  0.573989
O      3.012906  2.517398 -0.730169
H      2.604858  2.824933 -1.542840
C     -1.063098  2.448125 -0.254060
O     -0.023288  2.821253  0.280682
H     -1.366825  2.794539 -1.264451
O     -1.964135  1.538237  0.382659
H     -1.619189  1.296702  1.245322
15
TS candidate 16 - Checkpoint before FF optimization
C     -0.655125 -4.254963  0.055672
H     -0.019500 -4.801514  0.720581
H     -0.070455 -3.550154 -0.497873
H     -1.130798 -4.933520 -0.621230
Cl     -1.879816 -3.399198  0.985844
C      2.445942  1.258315 -0.358100
O      1.572560  0.711273 -1.024679
H      2.848507  0.808542  0.573989
O      3.012906  2.517398 -0.730169
H      2.604858  2.824933 -1.542840
C     -1.063098  2.448125 -0.254060
O     -0.023288  2.821253  0.280682
H     -1.366825  2.794539 -1.264451
O     -1.964135  1.538237  0.382659
H     -1.619189  1.296702  1.245322
15
TS candidate 17 - Checkpoint before FF optimization
C     -0.655125 -4.254963  0.055672
H     -0.019500 -4.801514  0.720581
H     -0.070455 -3.550154 -0.497873
H     -1.130798 -4.933520 -0.621230
Cl     -1.879816 -3.399198  0.985844
C      2.445942  1.258315 -0.358100
O      1.572560  0.711273 -1.024679
H      2.848507  0.808542  0.573989
O      3.012906  2.517398 -0.730169
H      2.604858  2.824933 -1.542840
C     -0.632492  3.000300  1.331011
O     -0.023288  2.821253  0.280682
H     -0.494253  3.913485  1.947554
O     -1.567655  2.046733  1.842241
H     -1.619189  1.296702  1.245322
15
TS candidate 18 - Checkpoint before FF optimization
C     -0.655125 -4.254963  0.055672
H     -0.252241 -5.052159  0.644743
H      0.128716 -3.577064 -0.210881
H     -1.097229 -4.655970 -0.832381
Cl     -1.879816 -3.399198  0.985844
C      2.445942  1.258315 -0.358100
O      1.572560  0.711273 -1.024679
H      2.848507  0.808542  0.573989
O      3.012906  2.517398 -0.730169
H      2.604858  2.824933 -1.542840
C     -1.063098  2.448125 -0.254060
O     -0.023288  2.821253  0.280682
H     -1.366825  2.794539 -1.264451
O     -1.964135  1.538237  0.382659
H     -1.619189  1.296702  1.245322
15
TS candidate 19 - Checkpoint before FF optimization
C     -0.655125 -4.254963  0.055672
H     -0.252241 -5.052159  0.644743
H      0.128716 -3.577064 -0.210881
H     -1.097229 -4.655970 -0.832381
Cl     -1.879816 -3.399198  0.985844
C      2.445942  1.258315 -0.358100
O      1.572560  0.711273 -1.024679
H      2.848507  0.808542  0.573989
O      3.012906  2.517398 -0.730169
H      2.604858  2.824933 -1.542840
C     -1.243647  2.925558  0.201793
O     -0.023288  2.821253  0.280682
H     -1.732696  3.762018 -0.340709
O     -2.130404  1.977880  0.802411
H     -1.619189  1.296702  1.245322
15
TS candidate 20 - Checkpoint before FF optimization
C     -0.655125 -4.254963  0.055672
H     -0.252241 -5.052159  0.644743
H      0.128716 -3.577064 -0.210881
H     -1.097229 -4.655970 -0.832381
Cl     -1.879816 -3.399198  0.985844
C      2.445942  1.258315 -0.358100
O      1.572560  0.711273 -1.024679
H      2.848507  0.808542  0.573989
O      3.012906  2.517398 -0.730169
H      2.604858  2.824933 -1.542840
C     -0.126755  2.562635  1.476002
O     -0.023288  2.821253  0.280682
H      0.530580  3.026598  2.241372
O     -1.101953  1.643725  1.975771
H     -1.619189  1.296702  1.245322
15
TS candidate 21 - Checkpoint before FF optimization
C     -0.655125 -4.254963  0.055672
H     -0.503642 -5.227567  0.475119
H      0.263284 -3.706658  0.085522
H     -0.980398 -4.350972 -0.959158
Cl     -1.879816 -3.399198  0.985844
C      2.445942  1.258315 -0.358100
O      1.572560  0.711273 -1.024679
H      2.848507  0.808542  0.573989
O      3.012906  2.517398 -0.730169
H      2.604858  2.824933 -1.542840
C     -1.243647  2.925558  0.201793
O     -0.023288  2.821253  0.280682
H     -1.732696  3.762018 -0.340709
O     -2.130404  1.977880  0.802411
H     -1.619189  1.296702  1.245322
15
TS candidate 22 - Checkpoint before FF optimization
C     -0.655125 -4.254963  0.055672
H     -0.503642 -5.227567  0.475119
H      0.263284 -3.706658  0.085522
H     -0.980398 -4.350972 -0.959158
Cl     -1.879816 -3.399198  0.985844
C      2.445942  1.258315 -0.358100
O      1.572560  0.711273 -1.024679
H      2.848507  0.808542  0.573989
O      3.012906  2.517398 -0.730169
H      2.604858  2.824933 -1.542840
C     -1.073587  3.143629  0.827786
O     -0.023288  2.821253  0.280682
H     -1.388090  4.203925  0.927811
O     -1.973822  2.178701  1.378845
H     -1.619189  1.296702  1.245322
